# generated using pymatgen
data_AgHN
_symmetry_space_group_name_H-M   'P 1'
_cell_length_a   5.53750664
_cell_length_b   9.19378025
_cell_length_c   6.72544413
_cell_angle_alpha   90.00000000
_cell_angle_beta   90.00000000
_cell_angle_gamma   90.00000000
_symmetry_Int_Tables_number   1
_chemical_formula_structural   AgHN
_chemical_formula_sum   'Ag8 H8 N8'
_cell_volume   342.39652477
_cell_formula_units_Z   8
loop_
 _symmetry_equiv_pos_site_id
 _symmetry_equiv_pos_as_xyz
  1  'x, y, z'
loop_
 _atom_site_type_symbol
 _atom_site_label
 _atom_site_symmetry_multiplicity
 _atom_site_fract_x
 _atom_site_fract_y
 _atom_site_fract_z
 _atom_site_occupancy
  Ag  Ag0  1  0.02959801  0.43797084  0.82591308  1
  Ag  Ag1  1  0.97040199  0.56202916  0.17408692  1
  Ag  Ag2  1  0.47040199  0.56202916  0.32591308  1
  Ag  Ag3  1  0.52959801  0.43797084  0.67408692  1
  Ag  Ag4  1  0.52959801  0.06202916  0.67408692  1
  Ag  Ag5  1  0.47040199  0.93797084  0.32591308  1
  Ag  Ag6  1  0.97040199  0.93797084  0.17408692  1
  Ag  Ag7  1  0.02959801  0.06202916  0.82591308  1
  H  H8  1  0.08801784  0.13225575  0.40071491  1
  H  H9  1  0.91198216  0.86774425  0.59928509  1
  H  H10  1  0.41198216  0.86774425  0.90071491  1
  H  H11  1  0.58801784  0.13225575  0.09928509  1
  H  H12  1  0.58801784  0.36774425  0.09928509  1
  H  H13  1  0.41198216  0.63225575  0.90071491  1
  H  H14  1  0.91198216  0.63225575  0.59928509  1
  H  H15  1  0.08801784  0.36774425  0.40071491  1
  N  N16  1  0.43745762  0.68019565  0.04017518  1
  N  N17  1  0.56254238  0.31980435  0.95982482  1
  N  N18  1  0.06254238  0.31980435  0.54017518  1
  N  N19  1  0.93745762  0.68019565  0.45982482  1
  N  N20  1  0.93745762  0.81980435  0.45982482  1
  N  N21  1  0.06254238  0.18019565  0.54017518  1
  N  N22  1  0.56254238  0.18019565  0.95982482  1
  N  N23  1  0.43745762  0.81980435  0.04017518  1
