# generated using pymatgen
data_AgHN
_symmetry_space_group_name_H-M   Pnma
_cell_length_a   5.53750664
_cell_length_b   9.19378025
_cell_length_c   6.72544413
_cell_angle_alpha   90.00000000
_cell_angle_beta   90.00000000
_cell_angle_gamma   90.00000000
_symmetry_Int_Tables_number   62
_chemical_formula_structural   AgHN
_chemical_formula_sum   'Ag8 H8 N8'
_cell_volume   342.39652477
_cell_formula_units_Z   8
loop_
 _symmetry_equiv_pos_site_id
 _symmetry_equiv_pos_as_xyz
  1  'x, y, z'
  2  '-x, -y, -z'
  3  '-x+1/2, -y, z+1/2'
  4  'x+1/2, y, -z+1/2'
  5  'x+1/2, -y+1/2, -z+1/2'
  6  '-x+1/2, y+1/2, z+1/2'
  7  '-x, y+1/2, -z'
  8  'x, -y+1/2, z'
loop_
 _atom_site_type_symbol
 _atom_site_label
 _atom_site_symmetry_multiplicity
 _atom_site_fract_x
 _atom_site_fract_y
 _atom_site_fract_z
 _atom_site_occupancy
  Ag  Ag0  8  0.02959801  0.06202916  0.82591308  1
  H  H1  8  0.08801784  0.13225575  0.40071491  1
  N  N2  8  0.56254238  0.31980435  0.95982482  1
  